CHEMBL84846
  -OEChem-07121202273D

 60 64  0     0  0  0  0  0  0999 V2000
   -1.4166    1.1771    0.2225 C   0  0  0  0  0  0  0  0  0  0  0  0
   -0.7170   -0.1517    0.0958 C   0  0  0  0  0  0  0  0  0  0  0  0
   -0.7321   -0.8289   -1.1083 C   0  0  0  0  0  0  0  0  0  0  0  0
   -0.0903   -2.0478   -1.2262 C   0  0  0  0  0  0  0  0  0  0  0  0
    0.5690   -2.5937   -0.1399 C   0  0  0  0  0  0  0  0  0  0  0  0
    0.5881   -1.9218    1.0674 C   0  0  0  0  0  0  0  0  0  0  0  0
   -0.0520   -0.6936    1.1872 C   0  0  0  0  0  0  0  0  0  0  0  0
   -0.0304   -0.0078    2.4064 N   0  0  0  0  0  0  0  0  0  0  0  0
   -0.4049   -0.6349    3.5391 C   0  0  0  0  0  0  0  0  0  0  0  0
   -0.6645   -1.8228    3.5191 O   0  0  0  0  0  0  0  0  0  0  0  0
   -0.4999    0.1194    4.8025 C   0  0  0  0  0  0  0  0  0  0  0  0
   -0.2087    1.4905    4.8364 C   0  0  0  0  0  0  0  0  0  0  0  0
   -0.2896    2.2028    5.9868 C   0  0  0  0  0  0  0  0  0  0  0  0
   -0.6733    1.5857    7.2037 C   0  0  0  0  0  0  0  0  0  0  0  0
   -0.9628    0.2004    7.1437 C   0  0  0  0  0  0  0  0  0  0  0  0
   -0.8876   -0.5211    5.9845 C   0  0  0  0  0  0  0  0  0  0  0  0
   -1.3881   -0.1707    8.8285 S   0  0  0  0  0  0  0  0  0  0  0  0
   -1.1633    1.4767    9.4840 C   0  0  0  0  0  0  0  0  0  0  0  0
   -0.7976    2.1550    8.4182 N   0  0  0  0  0  0  0  0  0  0  0  0
   -1.3305    1.9236   10.7796 N   0  0  0  0  0  0  0  0  0  0  0  0
   -1.2094    3.2758   11.0685 C   0  0  0  0  0  0  0  0  0  0  0  0
   -1.4865    3.7548   12.3502 C   0  0  0  0  0  0  0  0  0  0  0  0
   -1.3513    5.1087   12.5876 C   0  0  0  0  0  0  0  0  0  0  0  0
   -0.9659    5.9031   11.5989 N   0  0  0  0  0  0  0  0  0  0  0  0
   -0.7117    5.4199   10.3996 C   0  0  0  0  0  0  0  0  0  0  0  0
   -0.8224    4.1347   10.1304 N   0  0  0  0  0  0  0  0  0  0  0  0
   -0.2764    6.3623    9.3072 C   0  0  0  0  0  0  0  0  0  0  0  0
   -1.6389    5.6760   13.9538 C   0  0  0  0  0  0  0  0  0  0  0  0
   -0.3869    5.7764   14.7157 N   0  0  0  0  0  0  0  0  0  0  0  0
    0.1614    4.4436   15.0060 C   0  0  0  0  0  0  0  0  0  0  0  0
    1.4925    4.5957   15.7470 C   0  0  0  0  0  0  0  0  0  0  0  0
    1.2863    5.3666   16.9338 O   0  0  0  0  0  0  0  0  0  0  0  0
    0.7535    6.6708   16.6879 C   0  0  0  0  0  0  0  0  0  0  0  0
   -0.5851    6.5397   15.9564 C   0  0  0  0  0  0  0  0  0  0  0  0
    1.4152   -2.6077    2.4309 Cl  0  0  0  0  0  0  0  0  0  0  0  0
   -0.7235    1.9785   -0.0332 H   0  0  0  0  0  0  0  0  0  0  0  0
   -2.2698    1.2046   -0.4552 H   0  0  0  0  0  0  0  0  0  0  0  0
   -1.7625    1.3092    1.2477 H   0  0  0  0  0  0  0  0  0  0  0  0
   -1.2463   -0.4057   -1.9586 H   0  0  0  0  0  0  0  0  0  0  0  0
   -0.1042   -2.5750   -2.1687 H   0  0  0  0  0  0  0  0  0  0  0  0
    1.0690   -3.5462   -0.2353 H   0  0  0  0  0  0  0  0  0  0  0  0
    0.2541    0.9191    2.4365 H   0  0  0  0  0  0  0  0  0  0  0  0
    0.0871    1.9901    3.9257 H   0  0  0  0  0  0  0  0  0  0  0  0
   -0.0576    3.2576    5.9761 H   0  0  0  0  0  0  0  0  0  0  0  0
   -1.1212   -1.5755    5.9821 H   0  0  0  0  0  0  0  0  0  0  0  0
   -1.5325    1.2925   11.4880 H   0  0  0  0  0  0  0  0  0  0  0  0
   -1.7992    3.0835   13.1364 H   0  0  0  0  0  0  0  0  0  0  0  0
    0.8105    6.4447    9.3103 H   0  0  0  0  0  0  0  0  0  0  0  0
   -0.6090    5.9788    8.3426 H   0  0  0  0  0  0  0  0  0  0  0  0
   -0.7158    7.3450    9.4787 H   0  0  0  0  0  0  0  0  0  0  0  0
   -2.0815    6.6667   13.8500 H   0  0  0  0  0  0  0  0  0  0  0  0
   -2.3332    5.0212   14.4803 H   0  0  0  0  0  0  0  0  0  0  0  0
   -0.5405    3.8890   15.6288 H   0  0  0  0  0  0  0  0  0  0  0  0
    0.3242    3.9057   14.0721 H   0  0  0  0  0  0  0  0  0  0  0  0
    1.8747    3.6106   16.0147 H   0  0  0  0  0  0  0  0  0  0  0  0
    2.2113    5.1032   15.1037 H   0  0  0  0  0  0  0  0  0  0  0  0
    0.6011    7.1865   17.6360 H   0  0  0  0  0  0  0  0  0  0  0  0
    1.4508    7.2386   16.0719 H   0  0  0  0  0  0  0  0  0  0  0  0
   -0.9673    7.5319   15.7163 H   0  0  0  0  0  0  0  0  0  0  0  0
   -1.2989    6.0186   16.5943 H   0  0  0  0  0  0  0  0  0  0  0  0
  1  2  1  0  0  0  0
  1 36  1  0  0  0  0
  1 37  1  0  0  0  0
  1 38  1  0  0  0  0
  2  7  2  0  0  0  0
  2  3  1  0  0  0  0
  3  4  2  0  0  0  0
  3 39  1  0  0  0  0
  4  5  1  0  0  0  0
  4 40  1  0  0  0  0
  5  6  2  0  0  0  0
  5 41  1  0  0  0  0
  6  7  1  0  0  0  0
  6 35  1  0  0  0  0
  7  8  1  0  0  0  0
  8  9  1  0  0  0  0
  8 42  1  0  0  0  0
  9 10  2  0  0  0  0
  9 11  1  0  0  0  0
 11 16  2  0  0  0  0
 11 12  1  0  0  0  0
 12 13  2  0  0  0  0
 12 43  1  0  0  0  0
 13 14  1  0  0  0  0
 13 44  1  0  0  0  0
 14 19  1  0  0  0  0
 14 15  2  0  0  0  0
 15 16  1  0  0  0  0
 15 17  1  0  0  0  0
 16 45  1  0  0  0  0
 17 18  1  0  0  0  0
 18 19  2  0  0  0  0
 18 20  1  0  0  0  0
 20 21  1  0  0  0  0
 20 46  1  0  0  0  0
 21 26  2  0  0  0  0
 21 22  1  0  0  0  0
 22 23  2  0  0  0  0
 22 47  1  0  0  0  0
 23 24  1  0  0  0  0
 23 28  1  0  0  0  0
 24 25  2  0  0  0  0
 25 26  1  0  0  0  0
 25 27  1  0  0  0  0
 27 48  1  0  0  0  0
 27 49  1  0  0  0  0
 27 50  1  0  0  0  0
 28 29  1  0  0  0  0
 28 51  1  0  0  0  0
 28 52  1  0  0  0  0
 29 34  1  0  0  0  0
 29 30  1  0  0  0  0
 30 31  1  0  0  0  0
 30 53  1  0  0  0  0
 30 54  1  0  0  0  0
 31 32  1  0  0  0  0
 31 55  1  0  0  0  0
 31 56  1  0  0  0  0
 32 33  1  0  0  0  0
 33 34  1  0  0  0  0
 33 57  1  0  0  0  0
 33 58  1  0  0  0  0
 34 59  1  0  0  0  0
 34 60  1  0  0  0  0
M  END
