CHEMBL302481
  -OEChem-07121202273D

 50 53  0     0  0  0  0  0  0999 V2000
   -0.2729    1.5615   -0.1403 C   0  0  0  0  0  0  0  0  0  0  0  0
   -0.1989    0.0336   -0.1084 C   0  0  0  0  0  0  0  0  0  0  0  0
    0.5170   -0.4158    1.1670 C   0  0  0  0  0  0  0  0  0  0  0  0
   -1.6146   -0.5461   -0.1298 C   0  0  0  0  0  0  0  0  0  0  0  0
    0.5421   -0.4439   -1.2784 N   0  0  0  0  0  0  0  0  0  0  0  0
    1.0862    0.3616   -2.2423 C   0  0  0  0  0  0  0  0  0  0  0  0
    1.7014   -0.4011   -3.1791 C   0  0  0  0  0  0  0  0  0  0  0  0
    1.5247   -1.7979   -2.7621 C   0  0  0  0  0  0  0  0  0  0  0  0
    0.7946   -1.7590   -1.5613 C   0  0  0  0  0  0  0  0  0  0  0  0
    0.4979   -2.9103   -0.9597 N   0  0  0  0  0  0  0  0  0  0  0  0
    0.8824   -4.0572   -1.4768 C   0  0  0  0  0  0  0  0  0  0  0  0
    1.5717   -4.1377   -2.6004 N   0  0  0  0  0  0  0  0  0  0  0  0
    1.9091   -3.0430   -3.2769 C   0  0  0  0  0  0  0  0  0  0  0  0
    2.6327   -3.1311   -4.4528 N   0  0  0  0  0  0  0  0  0  0  0  0
    2.4130    0.0806   -4.3874 C   0  0  0  0  0  0  0  0  0  0  0  0
    3.6950   -0.3857   -4.6755 C   0  0  0  0  0  0  0  0  0  0  0  0
    4.3541    0.0639   -5.8005 C   0  0  0  0  0  0  0  0  0  0  0  0
    3.7425    0.9802   -6.6454 C   0  0  0  0  0  0  0  0  0  0  0  0
    2.4662    1.4469   -6.3610 C   0  0  0  0  0  0  0  0  0  0  0  0
    1.7994    0.9965   -5.2409 C   0  0  0  0  0  0  0  0  0  0  0  0
    4.3947    1.4217   -7.7529 O   0  0  0  0  0  0  0  0  0  0  0  0
    4.7744    2.7266   -7.7924 C   0  0  0  0  0  0  0  0  0  0  0  0
    5.3228    3.2547   -8.9521 C   0  0  0  0  0  0  0  0  0  0  0  0
    5.7086    4.5803   -8.9920 C   0  0  0  0  0  0  0  0  0  0  0  0
    5.5477    5.3835   -7.8727 C   0  0  0  0  0  0  0  0  0  0  0  0
    4.9999    4.8555   -6.7130 C   0  0  0  0  0  0  0  0  0  0  0  0
    4.6083    3.5315   -6.6747 C   0  0  0  0  0  0  0  0  0  0  0  0
    5.9276    6.6886   -7.9122 O   0  0  0  0  0  0  0  0  0  0  0  0
    0.7357    1.9745   -0.1250 H   0  0  0  0  0  0  0  0  0  0  0  0
   -0.7829    1.8817   -1.0488 H   0  0  0  0  0  0  0  0  0  0  0  0
   -0.8242    1.9168    0.7303 H   0  0  0  0  0  0  0  0  0  0  0  0
   -0.0343   -0.0604    2.0375 H   0  0  0  0  0  0  0  0  0  0  0  0
    0.5697   -1.5042    1.1897 H   0  0  0  0  0  0  0  0  0  0  0  0
    1.5256   -0.0027    1.1822 H   0  0  0  0  0  0  0  0  0  0  0  0
   -2.1246   -0.2260   -1.0383 H   0  0  0  0  0  0  0  0  0  0  0  0
   -1.5619   -1.6346   -0.1070 H   0  0  0  0  0  0  0  0  0  0  0  0
   -2.1659   -0.1908    0.7408 H   0  0  0  0  0  0  0  0  0  0  0  0
    1.0328    1.4402   -2.2548 H   0  0  0  0  0  0  0  0  0  0  0  0
    0.6240   -4.9704   -0.9612 H   0  0  0  0  0  0  0  0  0  0  0  0
    2.8802   -2.3246   -4.9316 H   0  0  0  0  0  0  0  0  0  0  0  0
    2.8925   -3.9994   -4.7984 H   0  0  0  0  0  0  0  0  0  0  0  0
    4.1715   -1.0980   -4.0183 H   0  0  0  0  0  0  0  0  0  0  0  0
    5.3471   -0.2970   -6.0243 H   0  0  0  0  0  0  0  0  0  0  0  0
    1.9934    2.1602   -7.0198 H   0  0  0  0  0  0  0  0  0  0  0  0
    0.8048    1.3564   -5.0227 H   0  0  0  0  0  0  0  0  0  0  0  0
    5.4484    2.6292   -9.8235 H   0  0  0  0  0  0  0  0  0  0  0  0
    6.1358    4.9914   -9.8947 H   0  0  0  0  0  0  0  0  0  0  0  0
    4.8750    5.4809   -5.8414 H   0  0  0  0  0  0  0  0  0  0  0  0
    4.1773    3.1216   -5.7733 H   0  0  0  0  0  0  0  0  0  0  0  0
    5.2303    7.2926   -8.2021 H   0  0  0  0  0  0  0  0  0  0  0  0
  1  2  1  0  0  0  0
  1 29  1  0  0  0  0
  1 30  1  0  0  0  0
  1 31  1  0  0  0  0
  2  3  1  0  0  0  0
  2  4  1  0  0  0  0
  2  5  1  0  0  0  0
  3 32  1  0  0  0  0
  3 33  1  0  0  0  0
  3 34  1  0  0  0  0
  4 35  1  0  0  0  0
  4 36  1  0  0  0  0
  4 37  1  0  0  0  0
  5  9  1  0  0  0  0
  5  6  1  0  0  0  0
  6  7  2  0  0  0  0
  6 38  1  0  0  0  0
  7  8  1  0  0  0  0
  7 15  1  0  0  0  0
  8 13  2  0  0  0  0
  8  9  1  0  0  0  0
  9 10  2  0  0  0  0
 10 11  1  0  0  0  0
 11 12  2  0  0  0  0
 11 39  1  0  0  0  0
 12 13  1  0  0  0  0
 13 14  1  0  0  0  0
 14 40  1  0  0  0  0
 14 41  1  0  0  0  0
 15 20  2  0  0  0  0
 15 16  1  0  0  0  0
 16 17  2  0  0  0  0
 16 42  1  0  0  0  0
 17 18  1  0  0  0  0
 17 43  1  0  0  0  0
 18 19  2  0  0  0  0
 18 21  1  0  0  0  0
 19 20  1  0  0  0  0
 19 44  1  0  0  0  0
 20 45  1  0  0  0  0
 21 22  1  0  0  0  0
 22 27  2  0  0  0  0
 22 23  1  0  0  0  0
 23 24  2  0  0  0  0
 23 46  1  0  0  0  0
 24 25  1  0  0  0  0
 24 47  1  0  0  0  0
 25 26  2  0  0  0  0
 25 28  1  0  0  0  0
 26 27  1  0  0  0  0
 26 48  1  0  0  0  0
 27 49  1  0  0  0  0
 28 50  1  0  0  0  0
M  END
