CHEMBL564829
  -OEChem-07121202273D

 67 71  0     0  0  0  0  0  0999 V2000
   -0.7147    1.0631    2.2902 C   0  0  0  0  0  0  0  0  0  0  0  0
   -0.5734   -0.4119    1.9091 C   0  0  0  0  0  0  0  0  0  0  0  0
   -0.3135   -0.5264    0.4065 C   0  0  0  0  0  0  0  0  0  0  0  0
    0.1728   -1.8906    0.0121 C   0  0  0  0  0  0  0  0  0  0  0  0
   -0.1885   -2.4481   -1.2002 C   0  0  0  0  0  0  0  0  0  0  0  0
    0.2817   -3.6427   -1.5258 N   0  0  0  0  0  0  0  0  0  0  0  0
    1.0925   -4.3101   -0.7169 C   0  0  0  0  0  0  0  0  0  0  0  0
    1.4580   -3.8193    0.4600 N   0  0  0  0  0  0  0  0  0  0  0  0
    1.0101   -2.6367    0.8537 C   0  0  0  0  0  0  0  0  0  0  0  0
    1.3145   -2.0692    2.1786 C   0  0  0  0  0  0  0  0  0  0  0  0
    0.5714   -1.0164    2.6686 C   0  0  0  0  0  0  0  0  0  0  0  0
    1.1194   -0.7175    3.9164 C   0  0  0  0  0  0  0  0  0  0  0  0
    2.1040   -1.5788    4.1258 N   0  0  0  0  0  0  0  0  0  0  0  0
    2.2210   -2.3845    3.1239 N   0  0  0  0  0  0  0  0  0  0  0  0
    3.1929   -3.4766    3.0293 C   0  0  0  0  0  0  0  0  0  0  0  0
    0.6837    0.3573    4.8318 C   0  0  0  0  0  0  0  0  0  0  0  0
   -0.3491    0.2376    5.4618 O   0  0  0  0  0  0  0  0  0  0  0  0
    1.4313    1.4703    4.9685 N   0  0  0  0  0  0  0  0  0  0  0  0
    0.9993    2.5360    5.8762 C   0  0  0  0  0  0  0  0  0  0  0  0
    1.5698   -5.5494   -1.1102 N   0  0  0  0  0  0  0  0  0  0  0  0
    1.2871   -6.0337   -2.3940 C   0  0  0  0  0  0  0  0  0  0  0  0
    1.1575   -5.1494   -3.4567 C   0  0  0  0  0  0  0  0  0  0  0  0
    0.8784   -5.6267   -4.7220 C   0  0  0  0  0  0  0  0  0  0  0  0
    0.7276   -6.9912   -4.9317 C   0  0  0  0  0  0  0  0  0  0  0  0
    0.8576   -7.8756   -3.8689 C   0  0  0  0  0  0  0  0  0  0  0  0
    1.1419   -7.3986   -2.6047 C   0  0  0  0  0  0  0  0  0  0  0  0
    0.4442   -7.4750   -6.2140 N   0  0  0  0  0  0  0  0  0  0  0  0
    0.1559   -8.9000   -6.4382 C   0  0  0  0  0  0  0  0  0  0  0  0
   -1.1396   -9.0118   -7.2487 C   0  0  0  0  0  0  0  0  0  0  0  0
   -1.0170   -8.2177   -8.4777 N   0  3  0  0  0  0  0  0  0  0  0  0
   -0.8825   -6.7945   -8.1421 C   0  0  0  0  0  0  0  0  0  0  0  0
    0.4202   -6.5719   -7.3750 C   0  0  0  0  0  0  0  0  0  0  0  0
   -2.2144   -8.4126   -9.3060 C   0  0  0  0  0  0  0  0  0  0  0  0
   -1.8648   -1.1540    2.2592 C   0  0  0  0  0  0  0  0  0  0  0  0
    0.2388    1.5698    2.1415 H   0  0  0  0  0  0  0  0  0  0  0  0
   -1.4754    1.5290    1.6638 H   0  0  0  0  0  0  0  0  0  0  0  0
   -1.0083    1.1414    3.3370 H   0  0  0  0  0  0  0  0  0  0  0  0
   -1.2387   -0.3131   -0.1289 H   0  0  0  0  0  0  0  0  0  0  0  0
    0.4358    0.2117    0.1207 H   0  0  0  0  0  0  0  0  0  0  0  0
   -0.8452   -1.9166   -1.8729 H   0  0  0  0  0  0  0  0  0  0  0  0
    4.1103   -3.1078    2.5705 H   0  0  0  0  0  0  0  0  0  0  0  0
    3.4126   -3.8550    4.0276 H   0  0  0  0  0  0  0  0  0  0  0  0
    2.7790   -4.2795    2.4193 H   0  0  0  0  0  0  0  0  0  0  0  0
    2.2553    1.5658    4.4658 H   0  0  0  0  0  0  0  0  0  0  0  0
    1.7253    3.3487    5.8540 H   0  0  0  0  0  0  0  0  0  0  0  0
    0.0254    2.9100    5.5600 H   0  0  0  0  0  0  0  0  0  0  0  0
    0.9256    2.1422    6.8899 H   0  0  0  0  0  0  0  0  0  0  0  0
    2.0999   -6.0819   -0.4968 H   0  0  0  0  0  0  0  0  0  0  0  0
    1.2748   -4.0883   -3.2936 H   0  0  0  0  0  0  0  0  0  0  0  0
    0.7769   -4.9389   -5.5484 H   0  0  0  0  0  0  0  0  0  0  0  0
    0.7404   -8.9368   -4.0319 H   0  0  0  0  0  0  0  0  0  0  0  0
    1.2474   -8.0867   -1.7790 H   0  0  0  0  0  0  0  0  0  0  0  0
    0.9756   -9.3567   -6.9929 H   0  0  0  0  0  0  0  0  0  0  0  0
    0.0329   -9.4041   -5.4796 H   0  0  0  0  0  0  0  0  0  0  0  0
   -1.3179  -10.0557   -7.5068 H   0  0  0  0  0  0  0  0  0  0  0  0
   -1.9732   -8.6366   -6.6551 H   0  0  0  0  0  0  0  0  0  0  0  0
   -0.8714   -6.2045   -9.0585 H   0  0  0  0  0  0  0  0  0  0  0  0
   -1.7239   -6.4863   -7.5215 H   0  0  0  0  0  0  0  0  0  0  0  0
    0.4718   -5.5374   -7.0354 H   0  0  0  0  0  0  0  0  0  0  0  0
    1.2670   -6.7895   -8.0259 H   0  0  0  0  0  0  0  0  0  0  0  0
   -3.0961   -8.0913   -8.7514 H   0  0  0  0  0  0  0  0  0  0  0  0
   -2.1247   -7.8235  -10.2187 H   0  0  0  0  0  0  0  0  0  0  0  0
   -2.3110   -9.4676   -9.5625 H   0  0  0  0  0  0  0  0  0  0  0  0
   -2.6970   -0.7144    1.7094 H   0  0  0  0  0  0  0  0  0  0  0  0
   -1.7649   -2.2050    1.9880 H   0  0  0  0  0  0  0  0  0  0  0  0
   -2.0525   -1.0714    3.3298 H   0  0  0  0  0  0  0  0  0  0  0  0
   -0.2028   -8.5192   -8.9917 H   0  0  0  0  0  0  0  0  0  0  0  0
  1  2  1  0  0  0  0
  1 35  1  0  0  0  0
  1 36  1  0  0  0  0
  1 37  1  0  0  0  0
  2 11  1  0  0  0  0
  2  3  1  0  0  0  0
  2 34  1  0  0  0  0
  3  4  1  0  0  0  0
  3 38  1  0  0  0  0
  3 39  1  0  0  0  0
  4  9  2  0  0  0  0
  4  5  1  0  0  0  0
  5  6  2  0  0  0  0
  5 40  1  0  0  0  0
  6  7  1  0  0  0  0
  7  8  2  0  0  0  0
  7 20  1  0  0  0  0
  8  9  1  0  0  0  0
  9 10  1  0  0  0  0
 10 14  1  0  0  0  0
 10 11  2  0  0  0  0
 11 12  1  0  0  0  0
 12 13  2  0  0  0  0
 12 16  1  0  0  0  0
 13 14  1  0  0  0  0
 14 15  1  0  0  0  0
 15 41  1  0  0  0  0
 15 42  1  0  0  0  0
 15 43  1  0  0  0  0
 16 17  2  0  0  0  0
 16 18  1  0  0  0  0
 18 19  1  0  0  0  0
 18 44  1  0  0  0  0
 19 45  1  0  0  0  0
 19 46  1  0  0  0  0
 19 47  1  0  0  0  0
 20 21  1  0  0  0  0
 20 48  1  0  0  0  0
 21 26  2  0  0  0  0
 21 22  1  0  0  0  0
 22 23  2  0  0  0  0
 22 49  1  0  0  0  0
 23 24  1  0  0  0  0
 23 50  1  0  0  0  0
 24 25  2  0  0  0  0
 24 27  1  0  0  0  0
 25 26  1  0  0  0  0
 25 51  1  0  0  0  0
 26 52  1  0  0  0  0
 27 32  1  0  0  0  0
 27 28  1  0  0  0  0
 28 29  1  0  0  0  0
 28 53  1  0  0  0  0
 28 54  1  0  0  0  0
 29 30  1  0  0  0  0
 29 55  1  0  0  0  0
 29 56  1  0  0  0  0
 30 31  1  0  0  0  0
 30 33  1  0  0  0  0
 30 67  1  0  0  0  0
 31 32  1  0  0  0  0
 31 57  1  0  0  0  0
 31 58  1  0  0  0  0
 32 59  1  0  0  0  0
 32 60  1  0  0  0  0
 33 61  1  0  0  0  0
 33 62  1  0  0  0  0
 33 63  1  0  0  0  0
 34 64  1  0  0  0  0
 34 65  1  0  0  0  0
 34 66  1  0  0  0  0
M  CHG  1  30   1
M  END
